silybin
     RDKit          3D

 35 39  0  0  0  0  0  0  0  0999 V2000
   85.5950   69.5490   71.8730 O   0  0  0  0  0  0  0  0  0  0  0  0
   83.5970   70.7710   70.2320 O   0  0  0  0  0  0  0  0  0  0  0  0
   84.5050   74.4590   75.2720 O   0  0  0  0  0  0  0  0  0  0  0  0
   85.9980   71.1530   76.4100 O   0  0  0  0  0  0  0  0  0  0  0  0
   82.3710   69.1530   68.4770 O   0  0  0  0  0  0  0  0  0  0  0  0
   86.1730   72.7580   78.6140 O   0  0  0  0  0  0  0  0  0  0  0  0
   85.2540   74.8860   80.0830 O   0  0  0  0  0  0  0  0  0  0  0  0
   79.9860   67.8790   71.7530 O   0  0  0  0  0  0  0  0  0  0  0  0
   82.9740   78.2270   77.6780 O   0  0  0  0  0  0  0  0  0  0  0  0
   80.5940   65.9530   73.6770 O   0  0  0  0  0  0  0  0  0  0  0  0
   84.8030   68.7490   70.9810 C   0  0  2  0  0  0  0  0  0  0  0  0
   84.3900   69.6550   69.7830 C   0  0  1  0  0  0  0  0  0  0  0  0
   85.1770   73.1890   75.1640 C   0  0  2  0  0  0  0  0  0  0  0  0
   84.7050   72.4720   73.8900 C   0  0  0  0  0  0  0  0  0  0  0  0
   85.1570   72.3050   76.4530 C   0  0  2  0  0  0  0  0  0  0  0  0
   84.9840   70.7330   72.2310 C   0  0  0  0  0  0  0  0  0  0  0  0
   83.9510   71.2800   71.4650 C   0  0  0  0  0  0  0  0  0  0  0  0
   83.6490   68.0300   71.7190 C   0  0  0  0  0  0  0  0  0  0  0  0
   85.4000   71.3580   73.4030 C   0  0  0  0  0  0  0  0  0  0  0  0
   83.7360   68.8790   68.6200 C   0  0  0  0  0  0  0  0  0  0  0  0
   83.5930   72.9400   73.1690 C   0  0  0  0  0  0  0  0  0  0  0  0
   85.4980   73.1660   77.6760 C   0  0  0  0  0  0  0  0  0  0  0  0
   83.2250   72.3530   71.9570 C   0  0  0  0  0  0  0  0  0  0  0  0
   84.8840   74.5220   77.6990 C   0  0  0  0  0  0  0  0  0  0  0  0
   84.4080   75.0730   76.5010 C   0  0  0  0  0  0  0  0  0  0  0  0
   82.3000   68.3590   71.5210 C   0  0  0  0  0  0  0  0  0  0  0  0
   83.9450   66.9910   72.6020 C   0  0  0  0  0  0  0  0  0  0  0  0
   84.7680   75.2940   78.8730 C   0  0  0  0  0  0  0  0  0  0  0  0
   83.7730   76.3140   76.4840 C   0  0  0  0  0  0  0  0  0  0  0  0
   81.2820   67.6330   72.1280 C   0  0  0  0  0  0  0  0  0  0  0  0
   82.9330   66.2870   73.2600 C   0  0  0  0  0  0  0  0  0  0  0  0
   83.6210   77.0290   77.6660 C   0  0  0  0  0  0  0  0  0  0  0  0
   84.1330   76.5300   78.8530 C   0  0  0  0  0  0  0  0  0  0  0  0
   81.6000   66.6160   73.0300 C   0  0  0  0  0  0  0  0  0  0  0  0
   79.5100   66.8980   70.8390 C   0  0  0  0  0  0  0  0  0  0  0  0
 11  1  1  0
 12  2  1  0
 12 11  1  0
 13  3  1  0
 13 14  1  6
 15 13  1  0
 15  4  1  6
 16  1  1  0
 17  2  1  0
 17 16  2  0
 11 18  1  1
 19 16  1  0
 19 14  2  0
 12 20  1  6
 20  5  1  0
 21 14  1  0
 22 15  1  0
 22  6  2  0
 23 21  2  0
 23 17  1  0
 24 22  1  0
 25  3  1  0
 25 24  2  0
 26 18  2  0
 27 18  1  0
 28 24  1  0
 28  7  1  0
 29 25  1  0
 30  8  1  0
 30 26  1  0
 31 27  2  0
 32 29  2  0
 32  9  1  0
 33 28  2  0
 33 32  1  0
 34 30  2  0
 34 10  1  0
 34 31  1  0
 35  8  1  0
M  END
